Circuit: * C:\users\jwl\My Documents\Projects\Clock\Power\LT8304_200Vout.asc

Direct Newton iteration failed to find .op point.  (Use ".option noopiter" to skip.)
Starting Gmin stepping
Gmin = 10
Gmin = 1.07374
Gmin = 0.115292
Gmin = 0.0123794
Gmin = 0.00132923
Gmin = 0.000142725
Gmin = 1.5325e-005
Gmin = 1.6455e-006
Gmin = 1.76685e-007
Gmin = 1.89714e-008
Gmin = 2.03704e-009
Gmin = 2.18725e-010
Gmin = 2.34854e-011
Gmin = 2.52173e-012
Gmin = 2.70769e-013
Gmin = 0
Gmin stepping succeeded in finding the operating point.


Date: Fri Nov 29 23:33:28 2019
Total elapsed time: 13.846 seconds.

tnom = 27
temp = 27
method = modified trap
totiter = 1397987
traniter = 1397633
tranpoints = 376571
accept = 277312
rejected = 99259
matrix size = 69
fillins = 8
solver = Normal
Thread vector: 7.9/6.1[3] 4.0/3.1[3] 1.2/2.1[1] 0.8/1.8[1]  2592/500
Matrix Compiler1: 2.71 KB object code size  1.2/0.9/[0.7]
Matrix Compiler2: 4.45 KB object code size  1.1/1.4/[0.9]

